Circuit: * Z:\home\tejaswinianagani\EE2227_controlsystems\feedback\codes\ee18btech11047\spice\gvv.asc

Direct Newton iteration for .op point succeeded.

Date: Sat May 09 14:43:56 2020
Total elapsed time: 0.326 seconds.

tnom = 27
temp = 27
method = modified trap
totiter = 37683
traniter = 37672
tranpoints = 15025
accept = 14109
rejected = 916
matrix size = 38
fillins = 46
solver = Normal
Matrix Compiler1: 4.12 KB object code size  1.8/1.3/[1.1]
Matrix Compiler2: 3.89 KB object code size  1.3/1.4/[1.1]


