Circuit: * Z:\home\tejaswinianagani\EE2227_controlsystems\feedback\codes\ee18btech11047\spice\gvv.asc

Direct Newton iteration for .op point succeeded.

Date: Sun May 10 16:33:25 2020
Total elapsed time: 1.004 seconds.

tnom = 27
temp = 27
method = modified trap
totiter = 100059
traniter = 100048
tranpoints = 50025
accept = 50025
rejected = 0
matrix size = 38
fillins = 46
solver = Normal
Matrix Compiler1: 4.12 KB object code size  1.9/1.3/[1.0]
Matrix Compiler2: 3.89 KB object code size  1.5/1.3/[1.1]


