Circuit: * Z:\home\tejaswinianagani\EE2227_controlsystems\feedback\codes\ee18btech11047\spice\gvv.asc

Direct Newton iteration for .op point succeeded.

Date: Sat May 09 16:55:18 2020
Total elapsed time: 0.259 seconds.

tnom = 27
temp = 27
method = modified trap
totiter = 21987
traniter = 21976
tranpoints = 5767
accept = 4301
rejected = 1466
matrix size = 38
fillins = 46
solver = Normal
Matrix Compiler1: 4.12 KB object code size  2.4/2.6/[1.5]
Matrix Compiler2: 3.89 KB object code size  1.8/2.5/[1.4]


